iidm/iidm-serde/src/test/resources/V1_19/eurostag-tutorial-multiple-selected-op-lim-group-force_low_limit.xml
<?xml version="1.0" encoding="UTF-8"?>
<iidm:network xmlns:iidm="http://www.powsybl.org/schema/iidm/1_19" id="sim1" caseDate="2018-01-01T11:00:00.000+01:00" forecastDistance="0" sourceFormat="test" minimumValidationLevel="STEADY_STATE_HYPOTHESIS">
    <iidm:substation id="P1" country="FR" tso="RTE" geographicalTags="A">
        <iidm:voltageLevel id="VLGEN" nominalV="24.0" topologyKind="BUS_BREAKER">
            <iidm:busBreakerTopology>
                <iidm:bus id="NGEN"/>
            </iidm:busBreakerTopology>
            <iidm:generator id="GEN" energySource="OTHER" minP="-9999.99" maxP="9999.99" voltageRegulatorOn="true" targetP="607.0" targetV="24.5" targetQ="301.0" bus="NGEN" connectableBus="NGEN">
                <iidm:minMaxReactiveLimits minQ="-9999.99" maxQ="9999.99"/>
            </iidm:generator>
        </iidm:voltageLevel>
        <iidm:voltageLevel id="VLHV1" nominalV="380.0" topologyKind="BUS_BREAKER">
            <iidm:busBreakerTopology>
                <iidm:bus id="NHV1"/>
            </iidm:busBreakerTopology>
        </iidm:voltageLevel>
        <iidm:twoWindingsTransformer id="NGEN_NHV1" r="0.26658461538461536" x="11.104492831516762" ratedU1="24.0" ratedU2="400.0" voltageLevelId1="VLGEN" bus1="NGEN" connectableBus1="NGEN" voltageLevelId2="VLHV1" bus2="NHV1" connectableBus2="NHV1"/>
    </iidm:substation>
    <iidm:substation id="P2" country="FR" tso="RTE" geographicalTags="B">
        <iidm:voltageLevel id="VLHV2" nominalV="380.0" topologyKind="BUS_BREAKER">
            <iidm:busBreakerTopology>
                <iidm:bus id="NHV2"/>
            </iidm:busBreakerTopology>
        </iidm:voltageLevel>
        <iidm:voltageLevel id="VLLOAD" nominalV="150.0" topologyKind="BUS_BREAKER">
            <iidm:busBreakerTopology>
                <iidm:bus id="NLOAD"/>
            </iidm:busBreakerTopology>
            <iidm:load id="LOAD" loadType="UNDEFINED" p0="600.0" q0="200.0" bus="NLOAD" connectableBus="NLOAD"/>
        </iidm:voltageLevel>
        <iidm:twoWindingsTransformer id="NHV2_NLOAD" r="0.04724999999999999" x="4.049724365620455" ratedU1="400.0" ratedU2="158.0" voltageLevelId1="VLHV2" bus1="NHV2" connectableBus1="NHV2" voltageLevelId2="VLLOAD" bus2="NLOAD" connectableBus2="NLOAD">
            <iidm:ratioTapChanger regulating="true" tapPosition="1" targetDeadband="0.0" loadTapChangingCapabilities="true" regulationMode="VOLTAGE" regulationValue="158.0">
                <iidm:terminalRef id="NHV2_NLOAD" side="TWO"/>
                <iidm:step rho="0.8505666905244191"/>
                <iidm:step rho="1.0006666666666666"/>
                <iidm:step rho="1.150766642808914"/>
            </iidm:ratioTapChanger>
        </iidm:twoWindingsTransformer>
    </iidm:substation>
    <iidm:line id="NHV1_NHV2_1" r="3.0" x="33.0" b1="1.93E-4" b2="1.93E-4" voltageLevelId1="VLHV1" bus1="NHV1" connectableBus1="NHV1" voltageLevelId2="VLHV2" bus2="NHV2" connectableBus2="NHV2" selectedOperationalLimitsGroupIds1="DEFAULT,activated_1_1,activated_1_2" selectedOperationalLimitsGroupIds2="DEFAULT,activated_2_1">
        <iidm:operationalLimitsGroup1 id="DEFAULT">
            <iidm:currentLimits permanentLimit="500.0"/>
        </iidm:operationalLimitsGroup1>
        <iidm:operationalLimitsGroup1 id="activated_1_1">
            <iidm:currentLimits permanentLimit="1100.0">
                <iidm:temporaryLimit name="10'" acceptableDuration="600" value="1200.0"/>
                <iidm:temporaryLimit name="1'" acceptableDuration="60" value="1500.0"/>
            </iidm:currentLimits>
        </iidm:operationalLimitsGroup1>
        <iidm:operationalLimitsGroup1 id="activated_1_2">
            <iidm:currentLimits permanentLimit="300.0">
                <iidm:temporaryLimit name="40'" acceptableDuration="2400" value="700.0"/>
                <iidm:temporaryLimit name="0.5'" acceptableDuration="30" value="1600.0"/>
                <iidm:temporaryLimit name="N/A" acceptableDuration="0"/>
            </iidm:currentLimits>
        </iidm:operationalLimitsGroup1>
        <iidm:operationalLimitsGroup1 id="not_activated">
            <iidm:currentLimits permanentLimit="400.0">
                <iidm:temporaryLimit name="30'" acceptableDuration="1800" value="600.0"/>
            </iidm:currentLimits>
        </iidm:operationalLimitsGroup1>
        <iidm:operationalLimitsGroup1 id="low limits"/>
        <iidm:operationalLimitsGroup2 id="DEFAULT"/>
        <iidm:operationalLimitsGroup2 id="activated_2_1">
            <iidm:currentLimits permanentLimit="600.0">
                <iidm:temporaryLimit name="10'" acceptableDuration="600" value="1000.0"/>
            </iidm:currentLimits>
        </iidm:operationalLimitsGroup2>
    </iidm:line>
    <iidm:line id="NHV1_NHV2_2" r="3.0" x="33.0" b1="1.93E-4" b2="1.93E-4" voltageLevelId1="VLHV1" bus1="NHV1" connectableBus1="NHV1" voltageLevelId2="VLHV2" bus2="NHV2" connectableBus2="NHV2" p1="560.0" q1="550.0" p2="-560.0" q2="-550.0" selectedOperationalLimitsGroupIds1="DEFAULT" selectedOperationalLimitsGroupIds2="DEFAULT,activated_2_1,activated_2_2">
        <iidm:operationalLimitsGroup1 id="DEFAULT">
            <iidm:currentLimits permanentLimit="1100.0">
                <iidm:temporaryLimit name="20'" acceptableDuration="1200" value="1200.0"/>
                <iidm:temporaryLimit name="N/A" acceptableDuration="60"/>
            </iidm:currentLimits>
        </iidm:operationalLimitsGroup1>
        <iidm:operationalLimitsGroup2 id="DEFAULT">
            <iidm:currentLimits permanentLimit="500.0"/>
        </iidm:operationalLimitsGroup2>
        <iidm:operationalLimitsGroup2 id="activated_2_1">
            <iidm:currentLimits permanentLimit="200.0">
                <iidm:temporaryLimit name="20'" acceptableDuration="1200" value="600.0"/>
                <iidm:temporaryLimit name="N/A" acceptableDuration="0"/>
            </iidm:currentLimits>
        </iidm:operationalLimitsGroup2>
        <iidm:operationalLimitsGroup2 id="activated_2_2">
            <iidm:currentLimits permanentLimit="300.0">
                <iidm:temporaryLimit name="N/A" acceptableDuration="0"/>
            </iidm:currentLimits>
        </iidm:operationalLimitsGroup2>
        <iidm:operationalLimitsGroup2 id="not_activated">
            <iidm:currentLimits permanentLimit="400.0"/>
        </iidm:operationalLimitsGroup2>
    </iidm:line>
</iidm:network>
